*SPEF "IEEE 1481-1998"
*DESIGN "fir"
*DATE "Fri Aug 16 18:38:14 2024"
*VENDOR "Cadence Design Systems, Inc."
*PROGRAM "Innovus"
*VERSION "22.11-s119_1"
*DESIGN_FLOW "COUPLING C" "PIN_CAP NONE" "NAME_SCOPE LOCAL"
*DIVIDER /
*DELIMITER :
*BUS_DELIMITER []
*T_UNIT 1 NS
*C_UNIT 1 PF
*R_UNIT 1 OHM
*L_UNIT 1 HENRY

// MMMC spef file for corner 'ff_n40C_1v95.hold_rc'

*NAME_MAP

*1 delay_step1/FE_PHN161_n_4
*2 FE_PHN160_In_2
*3 FE_PHN159_In_0
*4 FE_PHN158_In_3
*5 delay_step3/FE_PHN157_n_1
*6 delay_step4/FE_PHN156_n_2
*7 delay_step1/FE_PHN155_n_3
*8 delay_step1/FE_PHN154_n_2
*9 FE_PHN153_delay_chain0_3
*10 FE_PHN152_In_1
*11 delay_step0/FE_PHN151_n_7
*12 delay_step4/FE_PHN150_n_1
*13 delay_step2/FE_PHN149_n_2
*14 delay_step2/FE_PHN148_n_3
*15 delay_step3/FE_PHN147_n_1
*16 delay_step4/FE_PHN146_n_2
*17 delay_step3/FE_PHN145_n_2
*18 FE_PHN144_In_2
*19 delay_step1/FE_PHN143_n_3
*20 delay_step1/FE_PHN142_n_2
*21 FE_PHN141_In_0
*22 FE_PHN140_delay_chain0_3
*23 FE_PHN139_In_1
*24 FE_PHN138_In_3
*25 delay_step0/FE_PHN137_n_5
*26 FE_PHN136_rst
*27 delay_step3/FE_PHN135_n_3
*28 delay_step2/FE_PHN134_n_0
*29 delay_step3/FE_PHN133_n_0
*30 delay_step4/FE_PHN132_n_1
*31 delay_step2/FE_PHN131_n_1
*32 delay_step1/FE_PHN130_n_1
*33 delay_step4/FE_PHN129_n_3
*34 delay_step2/FE_PHN128_n_2
*35 delay_step2/FE_PHN127_n_3
*36 delay_step4/FE_PHN126_n_2
*37 delay_step3/FE_PHN125_n_1
*38 delay_step3/FE_PHN124_n_2
*39 delay_step4/FE_PHN123_n_0
*40 delay_step1/FE_PHN122_n_3
*41 delay_step1/FE_PHN121_n_2
*42 FE_PHN120_delay_chain0_3
*43 FE_PHN119_In_2
*44 FE_PHN118_In_0
*45 FE_PHN117_In_1
*46 delay_step0/FE_PHN116_In_3
*47 delay_step0/FE_PHN115_n_7
*48 delay_step0/FE_PHN114_rst
*49 delay_step1/FE_PHN113_n_2
*50 delay_step3/FE_PHN112_n_3
*51 delay_step3/FE_PHN111_n_0
*52 delay_step2/FE_PHN110_n_1
*53 delay_step2/FE_PHN109_n_0
*54 delay_step0/FE_PHN108_In_2
*55 delay_step4/FE_PHN107_n_3
*56 delay_step1/FE_PHN106_n_1
*57 delay_step4/FE_PHN105_n_2
*58 delay_step3/FE_PHN104_n_1
*59 delay_step4/FE_PHN103_n_0
*60 delay_step4/FE_PHN102_n_1
*61 delay_step2/FE_PHN101_n_2
*62 delay_step2/FE_PHN100_n_3
*63 delay_step1/FE_PHN99_n_3
*64 delay_step3/FE_PHN98_n_2
*65 delay_step0/FE_PHN97_In_0
*66 FE_PHN96_delay_chain0_3
*67 delay_step0/FE_PHN95_In_1
*68 delay_step2/FE_PHN94_n_7
*69 delay_step0/FE_PHN93_n_6
*70 delay_step1/FE_PHN92_n_4
*71 delay_step2/FE_PHN91_n_6
*72 delay_step3/FE_PHN90_n_5
*73 delay_step1/FE_PHN89_n_7
*74 delay_step4/FE_PHN88_n_5
*75 delay_step0/FE_PHN87_n_7
*76 delay_step3/FE_PHN86_n_6
*77 delay_step3/FE_PHN85_n_7
*78 delay_step4/FE_PHN84_n_4
*79 delay_step1/FE_PHN83_n_5
*80 delay_step4/FE_PHN82_n_7
*81 delay_step2/FE_PHN81_n_5
*82 delay_step4/FE_PHN80_n_6
*83 delay_step1/FE_PHN79_n_6
*84 delay_step3/FE_PHN78_n_4
*85 delay_step0/FE_PHN77_n_5
*86 delay_step2/FE_PHN76_n_4
*87 delay_step0/FE_PHN75_n_4
*88 FE_PHN74_rst
*89 delay_step0/FE_PHN73_n_4
*90 delay_step0/FE_PHN72_n_5
*91 delay_step1/FE_PHN71_n_6
*92 delay_step0/FE_PHN70_n_6
*93 delay_step2/FE_PHN69_n_4
*94 delay_step4/FE_PHN68_n_7
*95 delay_step3/FE_PHN67_n_7
*96 delay_step3/FE_PHN66_n_5
*97 delay_step3/FE_PHN65_n_6
*98 delay_step1/FE_PHN64_n_4
*99 delay_step2/FE_PHN63_n_6
*100 delay_step3/FE_PHN62_n_4
*101 delay_step4/FE_PHN61_n_4
*102 delay_step2/FE_PHN60_n_5
*103 delay_step0/FE_PHN59_n_7
*104 delay_step2/FE_PHN58_n_7
*105 delay_step1/FE_PHN57_n_7
*106 delay_step4/FE_PHN56_n_5
*107 delay_step4/FE_PHN55_n_6
*108 delay_step1/FE_PHN54_n_5
*109 FE_PHN53_rst
*110 CTS_8
*111 CTS_7
*112 CTS_6
*113 CTS_3
*114 delay_step0/CTS_1
*115 CTS_2
*116 CTS_1
*117 CTS_5
*118 CTS_4
*119 FE_OFN48_Out_11
*120 FE_OFN47_Out_12
*121 FE_OFN38_Out_0
*122 FE_OFN37_Out_0
*123 FE_OFN36_Out_0
*124 FE_OFN35_Out_0
*125 FE_OFN34_Out_0
*126 FE_OFN33_Out_1
*127 FE_OFN32_Out_1
*128 FE_OFN31_Out_1
*129 FE_OFN30_Out_1
*130 FE_OFN29_Out_1
*131 FE_OFN28_Out_2
*132 FE_OFN27_Out_2
*133 FE_OFN26_Out_2
*134 FE_OFN25_Out_3
*135 FE_OFN24_Out_3
*136 FE_OFN23_Out_3
*137 FE_OFN22_Out_4
*138 FE_OFN21_Out_4
*139 FE_OFN20_Out_5
*140 FE_OFN19_Out_5
*141 FE_OFN18_Out_6
*142 FE_OFN17_Out_7
*143 FE_OFN16_Out_7
*144 FE_OFN10_Out_10
*145 FE_OFN5_Out_10
*146 FE_OFN4_Out_10
*147 FE_OFN2_Out_10
*148 FE_OFN1_Out_10
*149 FE_OFN0_Out_10
*150 clk
*151 rst
*152 In[3]
*153 In[2]
*154 In[1]
*155 In[0]
*156 Out[15]
*157 Out[14]
*158 Out[13]
*159 Out[12]
*160 Out[11]
*161 Out[10]
*162 Out[9]
*163 Out[8]
*164 Out[7]
*165 Out[6]
*166 Out[5]
*167 Out[4]
*168 Out[3]
*169 Out[2]
*170 Out[1]
*171 Out[0]
*172 delay_chain0[3]
*173 delay_chain0[2]
*174 delay_chain0[1]
*175 delay_chain0[0]
*176 delay_chain1[3]
*177 delay_chain1[2]
*178 delay_chain1[1]
*179 delay_chain1[0]
*180 delay_chain2[3]
*181 delay_chain2[2]
*182 delay_chain2[1]
*183 delay_chain2[0]
*184 delay_chain3[3]
*185 delay_chain3[2]
*186 delay_chain3[1]
*187 delay_chain3[0]
*188 delay_chain4[3]
*189 delay_chain4[2]
*190 delay_chain4[1]
*191 delay_chain4[0]
*192 add0/n_10
*193 add0/n_11
*194 add0/n_12
*195 add0/n_13
*196 add0/n_14
*197 add0/n_15
*198 add0/n_16
*199 add0/n_17
*200 add0/n_18
*201 add0/n_19
*202 add0/n_20
*203 add0/n_21
*204 add0/n_22
*205 add0/n_23
*206 add0/n_24
*207 add0/n_25
*208 add0/n_26
*209 add0/n_27
*210 add0/n_28
*211 add0/n_29
*212 add0/n_31
*213 add0/n_32
*214 add0/n_33
*215 add0/n_34
*216 add0/n_35
*217 add0/n_36
*218 add0/n_37
*219 add0/n_39
*220 add0/n_41
*221 add0/n_43
*222 add0/n_45
*223 add0/n_47
*224 delay_step0/UNCONNECTED
*225 delay_step0/UNCONNECTED0
*226 delay_step0/UNCONNECTED1
*227 delay_step0/UNCONNECTED2
*228 delay_step0/n_0
*229 delay_step0/n_1
*230 delay_step0/n_2
*231 delay_step0/n_3
*232 delay_step0/n_4
*233 delay_step0/n_5
*234 delay_step0/n_6
*235 delay_step0/n_7
*236 delay_step1/UNCONNECTED3
*237 delay_step1/UNCONNECTED4
*238 delay_step1/UNCONNECTED5
*239 delay_step1/UNCONNECTED6
*240 delay_step1/n_0
*241 delay_step1/n_1
*242 delay_step1/n_2
*243 delay_step1/n_3
*244 delay_step1/n_4
*245 delay_step1/n_5
*246 delay_step1/n_6
*247 delay_step1/n_7
*248 delay_step2/UNCONNECTED7
*249 delay_step2/UNCONNECTED8
*250 delay_step2/UNCONNECTED9
*251 delay_step2/UNCONNECTED10
*252 delay_step2/n_0
*253 delay_step2/n_1
*254 delay_step2/n_2
*255 delay_step2/n_3
*256 delay_step2/n_4
*257 delay_step2/n_5
*258 delay_step2/n_6
*259 delay_step2/n_7
*260 delay_step3/UNCONNECTED11
*261 delay_step3/UNCONNECTED12
*262 delay_step3/UNCONNECTED13
*263 delay_step3/UNCONNECTED14
*264 delay_step3/n_0
*265 delay_step3/n_1
*266 delay_step3/n_2
*267 delay_step3/n_3
*268 delay_step3/n_4
*269 delay_step3/n_5
*270 delay_step3/n_6
*271 delay_step3/n_7
*272 delay_step4/UNCONNECTED15
*273 delay_step4/UNCONNECTED16
*274 delay_step4/UNCONNECTED17
*275 delay_step4/UNCONNECTED18
*276 delay_step4/n_0
*277 delay_step4/n_1
*278 delay_step4/n_2
*279 delay_step4/n_3
*280 delay_step4/n_4
*281 delay_step4/n_5
*282 delay_step4/n_6
*283 delay_step4/n_7
*284 FE_PHC160_In_2
*285 FE_PHC159_In_0
*286 FE_PHC158_In_3
*287 FE_PHC153_delay_chain0_3
*288 FE_PHC152_In_1
*289 FE_PHC144_In_2
*290 FE_PHC141_In_0
*291 FE_PHC140_delay_chain0_3
*292 FE_PHC139_In_1
*293 FE_PHC138_In_3
*294 FE_PHC136_rst
*295 FE_PHC120_delay_chain0_3
*296 FE_PHC119_In_2
*297 FE_PHC118_In_0
*298 FE_PHC117_In_1
*299 FE_PHC96_delay_chain0_3
*300 FE_PHC74_rst
*301 FE_PHC53_rst
*302 CTS_ccl_a_buf_00004
*303 CTS_ccl_a_buf_00003
*304 CTS_ccl_a_buf_00002
*305 CTS_ccl_a_buf_00001
*306 CTS_ccl_a_buf_00006
*307 CTS_ccl_a_buf_00007
*308 CTS_ccl_buf_00008
*309 CTS_ccl_buf_00009
*310 FE_OFC52_Out_8
*311 FE_OFC51_Out_14
*312 FE_OFC50_Out_13
*313 FE_OFC49_Out_15
*314 FE_OFC48_Out_11
*315 FE_OFC47_Out_12
*316 FE_OFC38_Out_0
*317 FE_OFC37_Out_0
*318 FE_OFC36_Out_0
*319 FE_OFC35_Out_0
*320 FE_OFC34_Out_0
*321 FE_OFC33_Out_1
*322 FE_OFC32_Out_1
*323 FE_OFC31_Out_1
*324 FE_OFC30_Out_1
*325 FE_OFC29_Out_1
*326 FE_OFC28_Out_2
*327 FE_OFC27_Out_2
*328 FE_OFC26_Out_2
*329 FE_OFC25_Out_3
*330 FE_OFC24_Out_3
*331 FE_OFC23_Out_3
*332 FE_OFC22_Out_4
*333 FE_OFC21_Out_4
*334 FE_OFC20_Out_5
*335 FE_OFC19_Out_5
*336 FE_OFC18_Out_6
*337 FE_OFC17_Out_7
*338 FE_OFC16_Out_7
*339 FE_OFC15_Out_10
*340 FE_OFC13_Out_10
*341 FE_OFC11_Out_10
*342 FE_OFC10_Out_10
*343 FE_OFC6_Out_10
*344 FE_OFC5_Out_10
*345 FE_OFC4_Out_10
*346 FE_OFC1_Out_10
*347 FE_OFC0_Out_10
*348 add0/g768
*349 add0/g769__2398
*350 add0/g770__5107
*351 add0/g771__6260
*352 add0/g772__4319
*353 add0/g773__8428
*354 add0/g774__5526
*355 add0/g775
*356 add0/g776
*357 add0/g777__6783
*358 add0/g778__3680
*359 add0/g779__1617
*360 add0/g780__2802
*361 add0/g781__1705
*362 add0/g782__5122
*363 add0/g783
*364 add0/g784__8246
*365 add0/g785__7098
*366 add0/g786__6131
*367 add0/g788__1881
*368 add0/g789__5115
*369 add0/g790__7482
*370 add0/g791
*371 add0/g792
*372 add0/g793
*373 add0/g795
*374 add0/g2__4733
*375 delay_step0/FE_PHC151_n_7
*376 delay_step0/FE_PHC137_n_5
*377 delay_step0/FE_PHC116_In_3
*378 delay_step0/FE_PHC115_n_7
*379 delay_step0/FE_PHC114_rst
*380 delay_step0/FE_PHC108_In_2
*381 delay_step0/FE_PHC97_In_0
*382 delay_step0/FE_PHC95_In_1
*383 delay_step0/FE_PHC93_n_6
*384 delay_step0/FE_PHC87_n_7
*385 delay_step0/FE_PHC77_n_5
*386 delay_step0/FE_PHC75_n_4
*387 delay_step0/FE_PHC73_n_4
*388 delay_step0/FE_PHC72_n_5
*389 delay_step0/FE_PHC70_n_6
*390 delay_step0/FE_PHC59_n_7
*391 delay_step0/CTS_ccl_a_buf_00005
*392 delay_step0/q_reg\[3\]
*393 delay_step0/q_reg\[2\]
*394 delay_step0/q_reg\[0\]
*395 delay_step0/q_reg\[1\]
*396 delay_step0/g7__6161
*397 delay_step0/g8__9315
*398 delay_step0/g9__9945
*399 delay_step0/g10__2883
*400 delay_step0/g11
*401 delay_step0/g12
*402 delay_step0/g13
*403 delay_step0/g14
*404 delay_step1/FE_PHC161_n_4
*405 delay_step1/FE_PHC155_n_3
*406 delay_step1/FE_PHC154_n_2
*407 delay_step1/FE_PHC143_n_3
*408 delay_step1/FE_PHC142_n_2
*409 delay_step1/FE_PHC130_n_1
*410 delay_step1/FE_PHC122_n_3
*411 delay_step1/FE_PHC121_n_2
*412 delay_step1/FE_PHC113_n_2
*413 delay_step1/FE_PHC106_n_1
*414 delay_step1/FE_PHC99_n_3
*415 delay_step1/FE_PHC92_n_4
*416 delay_step1/FE_PHC89_n_7
*417 delay_step1/FE_PHC83_n_5
*418 delay_step1/FE_PHC79_n_6
*419 delay_step1/FE_PHC71_n_6
*420 delay_step1/FE_PHC64_n_4
*421 delay_step1/FE_PHC57_n_7
*422 delay_step1/FE_PHC54_n_5
*423 delay_step1/q_reg\[3\]
*424 delay_step1/q_reg\[2\]
*425 delay_step1/q_reg\[0\]
*426 delay_step1/q_reg\[1\]
*427 delay_step1/g7__2346
*428 delay_step1/g8__1666
*429 delay_step1/g9__7410
*430 delay_step1/g10__6417
*431 delay_step1/g11
*432 delay_step1/g12
*433 delay_step1/g13
*434 delay_step1/g14
*435 delay_step2/FE_PHC149_n_2
*436 delay_step2/FE_PHC148_n_3
*437 delay_step2/FE_PHC134_n_0
*438 delay_step2/FE_PHC131_n_1
*439 delay_step2/FE_PHC128_n_2
*440 delay_step2/FE_PHC127_n_3
*441 delay_step2/FE_PHC110_n_1
*442 delay_step2/FE_PHC109_n_0
*443 delay_step2/FE_PHC101_n_2
*444 delay_step2/FE_PHC100_n_3
*445 delay_step2/FE_PHC94_n_7
*446 delay_step2/FE_PHC91_n_6
*447 delay_step2/FE_PHC81_n_5
*448 delay_step2/FE_PHC76_n_4
*449 delay_step2/FE_PHC69_n_4
*450 delay_step2/FE_PHC63_n_6
*451 delay_step2/FE_PHC60_n_5
*452 delay_step2/FE_PHC58_n_7
*453 delay_step2/q_reg\[3\]
*454 delay_step2/q_reg\[2\]
*455 delay_step2/q_reg\[0\]
*456 delay_step2/q_reg\[1\]
*457 delay_step2/g7__5477
*458 delay_step2/g8__2398
*459 delay_step2/g9__5107
*460 delay_step2/g10__6260
*461 delay_step2/g11
*462 delay_step2/g12
*463 delay_step2/g13
*464 delay_step2/g14
*465 delay_step3/FE_PHC157_n_1
*466 delay_step3/FE_PHC147_n_1
*467 delay_step3/FE_PHC145_n_2
*468 delay_step3/FE_PHC135_n_3
*469 delay_step3/FE_PHC133_n_0
*470 delay_step3/FE_PHC125_n_1
*471 delay_step3/FE_PHC124_n_2
*472 delay_step3/FE_PHC112_n_3
*473 delay_step3/FE_PHC111_n_0
*474 delay_step3/FE_PHC104_n_1
*475 delay_step3/FE_PHC98_n_2
*476 delay_step3/FE_PHC90_n_5
*477 delay_step3/FE_PHC86_n_6
*478 delay_step3/FE_PHC85_n_7
*479 delay_step3/FE_PHC78_n_4
*480 delay_step3/FE_PHC67_n_7
*481 delay_step3/FE_PHC66_n_5
*482 delay_step3/FE_PHC65_n_6
*483 delay_step3/FE_PHC62_n_4
*484 delay_step3/q_reg\[3\]
*485 delay_step3/q_reg\[2\]
*486 delay_step3/q_reg\[0\]
*487 delay_step3/q_reg\[1\]
*488 delay_step3/g7__4319
*489 delay_step3/g8__8428
*490 delay_step3/g9__5526
*491 delay_step3/g10__6783
*492 delay_step3/g11
*493 delay_step3/g12
*494 delay_step3/g13
*495 delay_step3/g14
*496 delay_step4/FE_PHC156_n_2
*497 delay_step4/FE_PHC150_n_1
*498 delay_step4/FE_PHC146_n_2
*499 delay_step4/FE_PHC132_n_1
*500 delay_step4/FE_PHC129_n_3
*501 delay_step4/FE_PHC126_n_2
*502 delay_step4/FE_PHC123_n_0
*503 delay_step4/FE_PHC107_n_3
*504 delay_step4/FE_PHC105_n_2
*505 delay_step4/FE_PHC103_n_0
*506 delay_step4/FE_PHC102_n_1
*507 delay_step4/FE_PHC88_n_5
*508 delay_step4/FE_PHC84_n_4
*509 delay_step4/FE_PHC82_n_7
*510 delay_step4/FE_PHC80_n_6
*511 delay_step4/FE_PHC68_n_7
*512 delay_step4/FE_PHC61_n_4
*513 delay_step4/FE_PHC56_n_5
*514 delay_step4/FE_PHC55_n_6
*515 delay_step4/q_reg\[3\]
*516 delay_step4/q_reg\[2\]
*517 delay_step4/q_reg\[0\]
*518 delay_step4/q_reg\[1\]
*519 delay_step4/g7__3680
*520 delay_step4/g8__1617
*521 delay_step4/g9__2802
*522 delay_step4/g10__1705
*523 delay_step4/g11
*524 delay_step4/g12
*525 delay_step4/g13
*526 delay_step4/g14


*PORTS

*150 I *C 3989.92 0
*151 I *C 3628.36 0
*152 I *C 3266.8 0
*153 I *C 2904.78 0
*154 I *C 2543.22 0
*155 I *C 2181.2 0
*156 O *C 1819.64 0
*157 O *C 1457.62 0
*158 O *C 1096.06 0
*159 O *C 734.04 0
*160 O *C 372.48 0
*161 O *C 10.46 0
*162 O *C 3989.66 0
*163 O *C 3548.1 0
*164 O *C 3105.91 0
*165 O *C 2663.72 0
*166 O *C 2221.54 0
*167 O *C 1779.36 0
*168 O *C 1337.17 0
*169 O *C 894.985 0
*170 O *C 452.8 0
*171 O *C 11.23 0


*D_NET *1 0.00268928

*CONN
*I *404:Y O *C 2669.72 15.06 *L 0 *D CLKBUFX2
*I *415:A I *C 2657.3 11.84 *L 0.00191 *D DLY2X4

*CAP
1 *404:Y 6.78761e-05
2 *415:A 6.78761e-05
3 *1:2 0.000122602
4 *1:3 0.000115659
5 *1:4 8.3575e-05
6 *1:5 9.05178e-05
7 *1:6 0.00107058
8 *1:7 0.00107058

*RES
1 *1:4 *404:Y 4.5
2 *1:5 *1:4 0.705391
3 *1:6 *1:5 3.41002
4 *1:7 *1:6 1.94582
5 *1:2 *1:7 3.41002
6 *1:3 *1:2 2.16966
7 *415:A *1:3 4.5
*END

*D_NET *2 0.00029478

*CONN
*I *284:Y O *C 2897.8799 15.06 *L 0 *D CLKBUFX2
*I *289:A I *C 2895.1201 15.98 *L 0.00191 *D CLKBUFX2

*CAP
1 *2:2 0.00014739
2 *2:3 0.00014739

*RES
1 *2:3 *284:Y 4.5
2 *2:2 *2:3 2.4643
3 *289:A *2:2 4.5
*END

*D_NET *3 0.00029478

*CONN
*I *285:Y O *C 2409.3601 13.22 *L 0 *D CLKBUFX2
*I *290:A I *C 2406.6001 12.3 *L 0.00191 *D CLKBUFX2

*CAP
1 *3:2 0.00014739
2 *3:3 0.00014739

*RES
1 *3:3 *285:Y 4.5
2 *3:2 *3:3 2.4643
3 *290:A *3:2 4.5
*END

*D_NET *4 0.00034392

*CONN
*I *286:Y O *C 3201.9399 13.22 *L 0 *D CLKBUFX2
*I *293:A I *C 3198.72 12.3 *L 0.00309 *D CLKBUFX4

*CAP
1 *4:2 0.00017196
2 *4:3 0.00017196

*RES
1 *4:3 *286:Y 4.5
2 *4:2 *4:3 2.87498
3 *293:A *4:2 4.5
*END

*D_NET *5 0.000761091

*CONN
*I *465:Y O *C 2636.1399 54.62 *L 0 *D CLKBUFX2
*I *466:A I *C 2633.3799 49.1 *L 0.00191 *D CLKBUFX2

*CAP
1 *465:Y 6.7881e-05
2 *466:A 6.7881e-05
3 *5:2 0.00016296
4 *5:3 0.00026715
5 *5:4 0.000195221

*RES
1 *5:2 *465:Y 4.5
2 *5:3 *5:2 2.05355
3 *5:4 *5:3 2.4643
4 *466:A *5:4 4.5
*END

*D_NET *6 0.00029478

*CONN
*I *496:Y O *C 2639.8201 48.18 *L 0 *D CLKBUFX2
*I *498:A I *C 2637.0601 49.1 *L 0.00191 *D CLKBUFX2

*CAP
1 *6:2 0.00014739
2 *6:3 0.00014739

*RES
1 *6:3 *496:Y 4.5
2 *6:2 *6:3 2.4643
3 *498:A *6:2 4.5
*END

*D_NET *7 0.00082707

*CONN
*I *405:Y O *C 2572.2 29.78 *L 0 *D CLKBUFX2
*I *407:A I *C 2569.4399 32.54 *L 0.00191 *D CLKBUFX2

*CAP
1 *405:Y 6.78778e-05
2 *407:A 6.78778e-05
3 *7:2 0.00030014
4 *7:3 0.000195953
5 *7:4 0.00019522

*RES
1 *7:3 *407:A 4.5
2 *7:4 *405:Y 4.5
3 *7:2 *7:3 3.69642
4 *7:2 *7:4 2.4643
*END

*D_NET *8 0.00019652

*CONN
*I *406:Y O *C 2651.78 13.22 *L 0 *D CLKBUFX2
*I *408:A I *C 2653.6201 12.3 *L 0.00191 *D CLKBUFX2

*CAP
1 *8:2 9.826e-05
2 *8:3 9.826e-05

*RES
1 *8:3 *408:A 4.5
2 *8:2 *8:3 1.64287
3 *406:Y *8:2 4.5
*END

*D_NET *9 0.00029478

*CONN
*I *287:Y O *C 2798.52 21.5 *L 0 *D CLKBUFX2
*I *291:A I *C 2795.76 20.58 *L 0.00191 *D CLKBUFX2

*CAP
1 *9:2 0.00014739
2 *9:3 0.00014739

*RES
1 *9:3 *287:Y 4.5
2 *9:2 *9:3 2.4643
3 *291:A *9:2 4.5
*END

*D_NET *10 0.00019652

*CONN
*I *288:Y O *C 2557.9399 13.22 *L 0 *D CLKBUFX2
*I *292:A I *C 2559.78 12.3 *L 0.00191 *D CLKBUFX2

*CAP
1 *10:2 9.826e-05
2 *10:3 9.826e-05

*RES
1 *10:3 *292:A 4.5
2 *10:2 *10:3 1.64287
3 *288:Y *10:2 4.5
*END

*D_NET *11 0.00152218

*CONN
*I *375:Y O *C 2793 23.34 *L 0 *D CLKBUFX2
*I *384:A I *C 2785.6399 24.72 *L 0.00191 *D DLY2X4

*CAP
1 *375:Y 6.78812e-05
2 *384:A 6.78812e-05
3 *11:2 6.13823e-05
4 *11:3 5.44426e-05
5 *11:4 0.00057789
6 *11:5 5.39399e-05
7 *11:6 6.08797e-05
8 *11:7 0.00057789

*RES
1 *11:5 *375:Y 4.5
2 *11:5 *11:6 0.196449
3 *11:7 *11:6 3.41002
4 *11:4 *11:7 1.15308
5 *11:2 *11:4 3.41002
6 *11:3 *11:2 0.196449
7 *384:A *11:3 4.5
*END

*D_NET *12 0.00162923

*CONN
*I *497:Y O *C 2622.3401 21.5 *L 0 *D CLKBUFX2
*I *499:A I *C 2620.96 32.54 *L 0.00191 *D CLKBUFX2

*CAP
1 *497:Y 6.78811e-05
2 *499:A 6.78811e-05
3 *12:2 6.67113e-05
4 *12:3 0.000121771
5 *12:4 0.000193473
6 *12:5 0.00016891
7 *12:6 0.0002547
8 *12:7 0.000205571
9 *12:8 0.000122078
10 *12:9 0.000160247
11 *12:10 0.000128401
12 *12:11 7.16005e-05

*RES
1 *12:8 *497:Y 4.5
2 *12:8 *12:9 0.821434
3 *12:9 *12:10 1.64287
4 *12:10 *12:11 0.821434
5 *12:5 *12:11 0.410683
6 *12:5 *12:4 2.87498
7 *12:4 *12:7 0.821434
8 *12:2 *499:A 4.5
9 *12:7 *12:6 3.28574
10 *12:3 *12:2 0.410683
11 *12:3 *12:6 1.64287
*END

*D_NET *13 0.00029478

*CONN
*I *435:Y O *C 2673.3999 21.5 *L 0 *D CLKBUFX2
*I *439:A I *C 2670.6399 20.58 *L 0.00191 *D CLKBUFX2

*CAP
1 *13:2 0.00014739
2 *13:3 0.00014739

*RES
1 *13:3 *435:Y 4.5
2 *13:2 *13:3 2.4643
3 *439:A *13:2 4.5
*END

*D_NET *14 0.001206

*CONN
*I *436:Y O *C 2610.3799 46.34 *L 0 *D CLKBUFX2
*I *440:A I *C 2605.78 49.1 *L 0.00191 *D CLKBUFX2

*CAP
1 *436:Y 6.78795e-05
2 *440:A 6.78795e-05
3 *14:2 7.6403e-05
4 *14:3 6.94628e-05
5 *14:4 0.000148051
6 *14:5 0.000154991
7 *14:6 0.00031067
8 *14:7 0.00031067

*RES
1 *14:3 *436:Y 4.5
2 *14:3 *14:2 0.232155
3 *14:6 *14:2 3.41002
4 *14:4 *440:A 4.5
5 *14:7 *14:6 0.720634
6 *14:5 *14:4 2.23215
7 *14:5 *14:7 3.41002
*END

*D_NET *15 0.00139272

*CONN
*I *466:Y O *C 2633.8401 48.18 *L 0 *D CLKBUFX2
*I *490:B I *C 2627.8601 48.64 *L 0.00311 *D NOR2X1

*CAP
1 *466:Y 6.78785e-05
2 *490:B 6.78785e-05
3 *15:2 8.33453e-05
4 *15:3 9.02836e-05
5 *15:4 0.000441913
6 *15:5 0.00046732
7 *15:7 7.86746e-05
8 *15:8 9.54321e-05

*RES
1 *15:7 *490:B 4.5
2 *15:8 *15:7 3.41002
3 *15:5 *15:8 0.128471
4 *15:5 *15:4 0.936859
5 *15:3 *15:4 3.41002
6 *15:3 *15:2 0.321419
7 *15:2 *466:Y 4.5
8 *15:6 *15:2 0.502419
*END

*D_NET *16 0.000605892

*CONN
*I *498:Y O *C 2637.52 48.18 *L 0 *D CLKBUFX2
*I *522:B I *C 2636.1399 45.88 *L 0.00311 *D NOR2X1

*CAP
1 *498:Y 6.78805e-05
2 *522:B 6.78805e-05
3 *16:2 0.000121531
4 *16:3 0.00018955
5 *16:4 0.00015905

*RES
1 *16:4 *498:Y 4.5
2 *16:3 *16:4 2.05355
3 *16:2 *16:3 1.23212
4 *522:B *16:2 4.5
*END

*D_NET *17 0.00119435

*CONN
*I *467:Y O *C 2681.22 31.62 *L 0 *D BUFX4
*I *471:A I *C 2674.3201 32.54 *L 0.00191 *D CLKBUFX2

*CAP
1 *467:Y 6.78792e-05
2 *471:A 6.78792e-05
3 *17:2 0.000293478
4 *17:3 0.000338491875
5 *17:4 0.000215667
6 *17:5 6.56582e-05
7 *17:6 0.000145293

*RES
1 *17:5 *467:Y 4.5
2 *17:5 *17:6 0.410683
3 *17:4 *17:6 2.05355
4 *17:3 *17:4 1.23212
5 *17:2 *17:3 4.10717
6 *471:A *17:2 4.5
*END

*D_NET *18 0.00242297

*CONN
*I *289:Y O *C 2895.5801 15.06 *L 0 *D CLKBUFX2
*I *296:A I *C 2884.0801 15.98 *L 0.00191 *D CLKBUFX2

*CAP
1 *289:Y 6.78814e-05
2 *296:A 6.78814e-05
3 *18:2 5.28797e-05
4 *18:3 5.98173e-05
5 *18:4 0.00068992
6 *18:5 0.00068992
7 *18:6 0.000148785
8 *18:7 0.000158713
9 *18:8 0.000148185
10 *18:9 0.000138247
11 *18:10 0.000103843
12 *18:11 9.68952e-05

*RES
1 *18:2 *289:Y 4.5
2 *18:3 *18:2 0.160744
3 *18:6 *18:3 3.41002
4 *18:7 *18:6 0.216225
5 *18:7 *18:4 0.0955811
6 *18:5 *18:4 1.29721
7 *18:8 *18:5 0.0955811
8 *18:11 *296:A 4.5
9 *18:9 *18:8 0.288254
10 *18:10 *18:11 0.982109
11 *18:10 *18:9 3.41002
*END

*D_NET *19 0.000726908

*CONN
*I *407:Y O *C 2569.8999 31.62 *L 0 *D CLKBUFX2
*I *428:B I *C 2574.04 32.08 *L 0.00311 *D NOR2X1

*CAP
1 *407:Y 6.78794e-05
2 *428:B 6.78794e-05
3 *19:2 0.00026892
4 *19:3 7.21716e-05
5 *19:4 0.000250061

*RES
1 *19:3 *428:B 4.5
2 *19:3 *19:4 0.410683
3 *19:2 *19:4 3.69642
4 *407:Y *19:2 4.5
*END

*D_NET *20 0.000817789

*CONN
*I *408:Y O *C 2654.0801 13.22 *L 0 *D CLKBUFX2
*I *411:A I *C 2651.3201 15.98 *L 0.00191 *D CLKBUFX2

*CAP
1 *408:Y 6.78793e-05
2 *411:A 6.78793e-05
3 *20:2 0.00019131
4 *20:3 0.00029550084
5 *20:4 0.000195219

*RES
1 *20:2 *411:A 4.5
2 *20:4 *408:Y 4.5
3 *20:3 *20:2 2.4643
4 *20:3 *20:4 2.4643
*END

*D_NET *21 0.00029478

*CONN
*I *290:Y O *C 2407.0601 13.22 *L 0 *D CLKBUFX2
*I *297:A I *C 2404.3 12.3 *L 0.00191 *D CLKBUFX2

*CAP
1 *21:2 0.00014739
2 *21:3 0.00014739

*RES
1 *21:3 *290:Y 4.5
2 *21:2 *21:3 2.4643
3 *297:A *21:2 4.5
*END

*D_NET *22 0.00034392

*CONN
*I *291:Y O *C 2796.22 21.5 *L 0 *D CLKBUFX2
*I *295:A I *C 2793 20.58 *L 0.00309 *D CLKBUFX4

*CAP
1 *22:2 0.00017196
2 *22:3 0.00017196

*RES
1 *22:3 *291:Y 4.5
2 *22:2 *22:3 2.87498
3 *295:A *22:2 4.5
*END

*D_NET *23 0.00034392

*CONN
*I *292:Y O *C 2560.24 13.22 *L 0 *D CLKBUFX2
*I *298:A I *C 2563.46 12.3 *L 0.00191 *D CLKBUFX2

*CAP
1 *23:2 0.00017196
2 *23:3 0.00017196

*RES
1 *23:3 *298:A 4.5
2 *23:2 *23:3 2.87498
3 *292:Y *23:2 4.5
*END

*D_NET *24 0.0115946

*CONN
*I *293:Y O *C 3200.1001 13.22 *L 0 *D CLKBUFX4
*I *377:A I *C 3128.8 12.3 *L 0.00191 *D CLKBUFX2

*CAP
1 *293:Y 6.78939e-05
2 *377:A 6.78939e-05
3 *24:2 9.69418e-05
4 *24:3 0.000108181
5 *24:4 0.000109218
6 *24:5 0.0037771
7 *24:6 0.00374742
8 *24:7 5.84417e-05
9 *24:8 4.03444e-05
10 *24:9 5.15256e-05
11 *24:8 *111:10 9.9e-07
12 *24:6 *111:11 9.9e-07
13 *24:6 *111:11 0.00048043
14 *24:5 *111:2 0.00048043
15 *24:6 *111:2 0.00021639
16 *24:5 *111:3 0.00021639
17 *24:8 *148:6 1.47e-06
18 *24:6 *148:7 1.47e-06
19 *24:6 *148:7 0.00103553
20 *24:5 *148:8 0.00103553

*RES
1 *24:9 *293:Y 4.50008
2 *24:7 *24:9 0.151711
3 *24:8 *24:7 3.41005
4 *24:6 *24:8 0.0156247
5 *24:5 *24:6 11.0105333
6 *24:4 *24:5 3.41005
7 *24:3 *24:4 1.08029
8 *24:2 *24:3 0.821388
9 *377:A *24:2 4.50008
*END

*D_NET *25 0.00101573

*CONN
*I *376:Y O *C 2569.8999 15.06 *L 0 *D CLKBUFX2
*I *388:A I *C 2573.1201 11.84 *L 0.00191 *D DLY4X4

*CAP
1 *376:Y 6.78788e-05
2 *388:A 6.78788e-05
3 *25:2 0.000265713
4 *25:3 0.00039447
5 *25:4 0.000219786

*RES
1 *25:4 *388:A 4.5
2 *25:2 *376:Y 4.5
3 *25:3 *25:4 2.87498
4 *25:3 *25:2 2.87498
*END

*D_NET *26 0.0162531

*CONN
*I *294:Y O *C 2970.1001 13.22 *L 0 *D CLKBUFX4
*I *300:A I *C 2872.5801 15.52 *L 0.00195 *D DLY1X1
*I *379:A I *C 2967.8 16.44 *L 0.00191 *D DLY2X4

*CAP
1 *294:Y 6.78845e-05
2 *300:A 6.78845e-05
3 *379:A 6.78845e-05
4 *26:3 0.00582305
5 *26:4 0.00582305
6 *26:5 0.000319608
7 *26:6 0.000312677
8 *26:7 0.000181973
9 *26:8 0.000411839
10 *26:9 0.000200366
11 *26:10 0.000170689
12 *26:3 *148:3 0.00140301
13 *26:4 *148:4 0.00140301002

*RES
1 *26:9 *379:A 4.49997
2 *26:10 *294:Y 4.49997
3 *26:8 *26:9 2.87494
4 *26:8 *26:10 2.05366
5 *26:7 *26:8 2.87494
6 *26:3 *26:7 3.41009
7 *26:6 *300:A 4.49997
8 *26:4 *26:3 14.9177999
9 *26:5 *26:6 4.92859
10 *26:5 *26:4 3.41009
*END

*D_NET *27 0.00154484

*CONN
*I *468:Y O *C 2621.4199 56.46 *L 0 *D DLY1X1
*I *489:B I *C 2616.8201 54.16 *L 0.00311 *D NOR2X1

*CAP
1 *468:Y 6.78818e-05
2 *489:B 6.78818e-05
3 *27:2 0.000241579
4 *27:3 0.00024852
5 *27:4 6.31701e-05
6 *27:5 7.01117e-05
7 *27:6 0.00039285
8 *27:7 0.00039285

*RES
1 *27:2 *468:Y 4.5
2 *27:3 *27:2 2.8125
3 *27:6 *27:3 3.41002
4 *27:7 *27:6 0.720634
5 *27:5 *27:7 3.41002
6 *27:4 *489:B 4.5
7 *27:5 *27:4 0.348198
8 *27:8 *27:4 0.528374
*END

*D_NET *28 0.00039304

*CONN
*I *437:Y O *C 2725.3799 21.5 *L 0 *D DLY1X1
*I *457:B I *C 2729.0601 21.04 *L 0.00311 *D NOR2X1

*CAP
1 *28:2 0.00019652
2 *28:3 0.00019652

*RES
1 *28:3 *457:B 4.5
2 *28:2 *28:3 3.28574
3 *437:Y *28:2 4.5
*END

*D_NET *29 0.0001474

*CONN
*I *469:Y O *C 2689.04 31.62 *L 0 *D DLY1X1
*I *488:B I *C 2690.4199 32.08 *L 0.00311 *D NOR2X1

*CAP
1 *29:2 7.37e-05
2 *29:3 7.37e-05

*RES
1 *29:3 *488:B 4.5
2 *29:2 *29:3 1.23212
3 *469:Y *29:2 4.5
*END

*D_NET *30 0.000978992

*CONN
*I *499:Y O *C 2621.4199 31.62 *L 0 *D CLKBUFX2
*I *521:B I *C 2616.8201 29.32 *L 0.00311 *D NOR2X1

*CAP
1 *499:Y 6.78799e-05
2 *521:B 6.78799e-05
3 *30:2 0.000293483
4 *30:3 0.0003761
5 *30:4 0.000173648

*RES
1 *30:4 *499:Y 4.5
2 *30:3 *30:4 2.05355
3 *30:2 *30:3 4.10717
4 *521:B *30:2 4.5
*END

*D_NET *31 0.0001474

*CONN
*I *438:Y O *C 2646.26 56.46 *L 0 *D DLY1X1
*I *459:B I *C 2647.6399 56.92 *L 0.00311 *D NOR2X1

*CAP
1 *31:2 7.37e-05
2 *31:3 7.37e-05

*RES
1 *31:3 *459:B 4.5
2 *31:2 *31:3 1.23212
3 *438:Y *31:2 4.5
*END

*D_NET *32 0.00129677

*CONN
*I *409:Y O *C 2620.96 15.06 *L 0 *D DLY1X1
*I *429:B I *C 2616.8201 23.8 *L 0.00311 *D NOR2X1

*CAP
1 *409:Y 6.78776e-05
2 *429:B 6.78776e-05
3 *32:2 0.00039935
4 *32:3 0.000262029
5 *32:4 0.000135639
6 *32:5 9.50738e-05
7 *32:6 0.000268921

*RES
1 *32:5 *429:B 4.5
2 *32:4 *32:5 0.821434
3 *32:3 *32:4 1.64287
4 *32:6 *409:Y 4.5
5 *32:2 *32:3 3.28574
6 *32:2 *32:6 3.69642
*END

*D_NET *33 0.0001474

*CONN
*I *500:Y O *C 2589.22 39.9 *L 0 *D DLY1X1
*I *520:B I *C 2590.6001 40.36 *L 0.00311 *D NOR2X1

*CAP
1 *33:2 7.37e-05
2 *33:3 7.37e-05

*RES
1 *33:3 *520:B 4.5
2 *33:2 *33:3 1.23212
3 *500:Y *33:2 4.5
*END

*D_NET *34 0.00073696

*CONN
*I *439:Y O *C 2671.1001 21.5 *L 0 *D CLKBUFX2
*I *460:B I *C 2664.2 21.04 *L 0.00311 *D NOR2X1

*CAP
1 *34:2 0.00036848
2 *34:3 0.00036848

*RES
1 *34:3 *439:Y 4.50002
2 *34:2 *34:3 6.16071415
3 *460:B *34:2 4.50002
*END

*D_NET *35 0.00019652

*CONN
*I *440:Y O *C 2606.24 48.18 *L 0 *D CLKBUFX2
*I *458:B I *C 2608.0801 48.64 *L 0.00311 *D NOR2X1

*CAP
1 *35:2 9.826e-05
2 *35:3 9.826e-05

*RES
1 *35:3 *458:B 4.5
2 *35:2 *35:3 1.64287
3 *440:Y *35:2 4.5
*END

*D_NET *36 0.00138672

*CONN
*I *496:A I *C 2639.3601 49.1 *L 0.00191 *D CLKBUFX2
*I *501:Y O *C 2634.3 46.34 *L 0 *D CLKBUFX2

*CAP
1 *496:A 6.78807e-05
2 *501:Y 6.78807e-05
3 *36:2 0.000139976
4 *36:3 0.000133042
5 *36:4 0.00042035
6 *36:5 7.20884e-05
7 *36:6 0.00042035
8 *36:7 6.51483e-05

*RES
1 *36:7 *496:A 4.5
2 *36:5 *36:7 0.598206
3 *36:6 *36:5 3.41002
4 *36:4 *36:6 0.792732
5 *36:2 *36:4 3.41002
6 *36:3 *36:2 1.8661
7 *501:Y *36:3 4.5
*END

*D_NET *37 0.00138023

*CONN
*I *465:A I *C 2635.6799 53.7 *L 0.00191 *D CLKBUFX2
*I *470:Y O *C 2629.24 54.62 *L 0 *D CLKBUFX2

*CAP
1 *465:A 6.78775e-05
2 *470:Y 6.78775e-05
3 *37:2 0.00052174
4 *37:3 0.00052174
5 *37:4 4.67803e-05
6 *37:5 5.37225e-05
7 *37:6 4.67803e-05
8 *37:7 5.37225e-05

*RES
1 *37:6 *465:A 4.5
2 *37:6 *37:7 0.0624847
3 *37:2 *37:7 3.41002
4 *37:3 *37:2 1.00896
5 *37:5 *37:3 3.41002
6 *37:4 *37:5 0.0624847
7 *470:Y *37:4 4.5
*END

*D_NET *38 0.00244732

*CONN
*I *471:Y O *C 2674.78 31.62 *L 0 *D CLKBUFX2
*I *491:B I *C 2661.8999 32.08 *L 0.00311 *D NOR2X1

*CAP
1 *471:Y 6.78764e-05
2 *491:B 6.78764e-05
3 *38:2 0.00059845
4 *38:3 0.00059845
5 *38:4 4.4773e-05
6 *38:5 5.1704e-05
7 *38:6 9.35823e-05
8 *38:7 0.000239955
9 *38:8 0.000244348
10 *38:2 *109:72 0.0001738
11 *38:3 *109:73 0.0001738
12 *38:2 *109:73 4.295e-05
13 *38:3 *109:79 4.295e-05
14 *38:2 *109:79 3.4e-06
15 *38:3 *109:80 3.40000243e-06

*RES
1 *38:8 *471:Y 4.5
2 *38:7 *38:8 3.28574
3 *38:6 *38:7 0.794655
4 *38:2 *38:6 3.41002
5 *38:3 *38:2 1.44134
6 *38:5 *38:3 3.41002
7 *38:4 *38:5 0.0267792
8 *491:B *38:4 4.5
*END

*D_NET *39 0.000941469

*CONN
*I *502:Y O *C 2664.6599 48.18 *L 0 *D DLY1X1
*I *519:B I *C 2661.4399 54.16 *L 0.00311 *D NOR2X1

*CAP
1 *502:Y 6.78802e-05
2 *519:B 6.78802e-05
3 *39:2 0.000228581
4 *39:3 0.00035734
5 *39:4 0.000219791

*RES
1 *39:2 *519:B 4.5
2 *39:4 *502:Y 4.5
3 *39:3 *39:2 2.87498
4 *39:3 *39:4 2.87498
*END

*D_NET *40 0.00053628

*CONN
*I *405:A I *C 2571.74 28.86 *L 0.00191 *D CLKBUFX2
*I *410:Y O *C 2572.2 31.62 *L 0 *D CLKBUFX2

*CAP
1 *405:A 6.78804e-05
2 *410:Y 6.78804e-05
3 *40:2 0.00011686
4 *40:3 0.00013549
5 *40:4 6.47689e-05
6 *40:5 8.34007e-05

*RES
1 *40:5 *410:Y 4.5
2 *40:4 *40:5 0.821434
3 *40:2 *40:4 0.410683
4 *40:3 *40:2 1.64287
5 *405:A *40:3 4.5
*END

*D_NET *41 0.000746796

*CONN
*I *411:Y O *C 2651.78 15.06 *L 0 *D CLKBUFX2
*I *430:B I *C 2655.9199 15.52 *L 0.00311 *D NOR2X1

*CAP
1 *411:Y 6.78794e-05
2 *430:B 6.78794e-05
3 *41:2 0.00019522
4 *41:3 0.000110298
5 *41:4 0.00018399
6 *41:5 0.000121529

*RES
1 *41:5 *430:B 4.5
2 *41:3 *41:5 1.23212
3 *41:3 *41:4 1.23212
4 *41:2 *41:4 2.4643
5 *411:Y *41:2 4.5
*END

*D_NET *42 0.0134005

*CONN
*I *295:Y O *C 2794.3799 21.5 *L 0 *D CLKBUFX4
*I *434:A I *C 2715.26 21.04 *L 0.00304 *D CLKINVX1

*CAP
1 *295:Y 6.78707e-05
2 *434:A 6.78707e-05
3 *42:2 0.0026957
4 *42:3 0.0026957
5 *42:4 0.00083518
6 *42:5 0.000825266
7 *42:6 8.02108e-05
8 *42:7 8.71213e-05
9 *42:8 0.000918352
10 *42:9 0.000928306
11 *42:10 4.60287e-05
12 *42:11 5.29803e-05
13 *42:8 *172:16 0.00028967
14 *42:9 *172:15 0.00028967
15 *42:4 *172:11 0.00012878
16 *42:5 *172:9 0.00012878
17 *42:4 *172:13 0.0001738
18 *42:5 *172:10 0.0001738
19 *42:4 *172:14 0.00012607
20 *42:5 *172:12 0.00012607
21 *42:2 *172:16 0.00063034
22 *42:3 *172:15 0.000630340029
23 *42:8 *235:4 0.00027808
24 *42:9 *235:5 0.000278080001
25 *42:4 *247:6 0.00040554
26 *42:5 *247:7 0.00040554
27 *42:6 *247:2 1.768e-05
28 *42:7 *247:3 1.76800169e-05

*RES
1 *42:10 *295:Y 4.49997
2 *42:11 *42:10 0.0446909
3 *42:8 *42:11 3.41001
4 *42:9 *42:8 2.73852
5 *42:2 *42:9 0.0955178
6 *42:3 *42:2 6.70219994
7 *42:3 *42:4 0.0955178
8 *42:6 *434:A 4.49997
9 *42:5 *42:4 2.95471
10 *42:7 *42:6 0.866103
11 *42:7 *42:5 3.41001
*END

*D_NET *43 0.00422134

*CONN
*I *296:Y O *C 2884.54 15.06 *L 0 *D CLKBUFX2
*I *380:A I *C 2861.54 15.98 *L 0.00191 *D CLKBUFX2

*CAP
1 *296:Y 6.78784e-05
2 *380:A 6.78784e-05
3 *43:2 0.000532538
4 *43:3 0.00054247
5 *43:4 0.00066414
6 *43:5 0.000654198
7 *43:6 7.40602e-05
8 *43:7 6.71183e-05
9 *43:8 6.67434e-05
10 *43:9 5.98015e-05
11 *43:2 *235:6 0.00013556
12 *43:3 *235:7 0.00013556
13 *43:4 *235:6 1.824e-05
14 *43:5 *235:7 1.82400078e-05
15 *43:4 *88:8 1.356e-05
16 *43:5 *88:9 1.356e-05
17 *43:4 *88:7 0.00025491
18 *43:5 *88:5 0.000254909997